! This hub-height wind-speed file was generated by TurbSim (from OpenFAST--128-NOTFOUND) on 23-Oct-2023 at 22:16:35.
!
! The requested statistics for this data were:
!    Mean Total Wind Speed =   20.000 m/s
!    Turbulence Intensity  =   14.420%
!
!   Time  HorSpd  WndDir  VerSpd  HorShr  VerShr  LnVShr  GstSpd
!  (sec)   (m/s)   (deg)   (m/s)     (-)     (-)     (-)   (m/s)
   0.000   20.66    6.59    0.62   0.000   0.200   0.000    0.00
   0.050   19.53    6.92    0.53   0.000   0.200   0.000    0.00
   0.100   19.13    8.60    0.88   0.000   0.200   0.000    0.00
   0.150   19.61    5.60    0.53   0.000   0.200   0.000    0.00
   0.200   19.65    5.52    0.49   0.000   0.200   0.000    0.00
   0.250   20.42   10.73    0.66   0.000   0.200   0.000    0.00
   0.300   20.03   10.75    1.18   0.000   0.200   0.000    0.00
   0.350   19.77   10.02    0.20   0.000   0.200   0.000    0.00
   0.400   19.46    8.53   -0.78   0.000   0.200   0.000    0.00
   0.450   19.64    7.78   -0.52   0.000   0.200   0.000    0.00
   0.500   19.76    7.67   -1.02   0.000   0.200   0.000    0.00
   0.550   20.32    8.06   -1.15   0.000   0.200   0.000    0.00
   0.600   20.26    9.04   -1.57   0.000   0.200   0.000    0.00
   0.650   20.19    5.90   -1.54   0.000   0.200   0.000    0.00
   0.700   20.14    7.29   -1.87   0.000   0.200   0.000    0.00
   0.750   20.68    6.07   -2.05   0.000   0.200   0.000    0.00
   0.800   20.05    7.12   -2.20   0.000   0.200   0.000    0.00
   0.850   21.18    9.86   -2.80   0.000   0.200   0.000    0.00
   0.900   21.14    8.89   -3.39   0.000   0.200   0.000    0.00
   0.950   21.07   10.68   -2.76   0.000   0.200   0.000    0.00
   1.000   20.90    7.23   -2.89   0.000   0.200   0.000    0.00
   1.050   19.97    4.22   -1.66   0.000   0.200   0.000    0.00
   1.100   20.63    3.05   -2.40   0.000   0.200   0.000    0.00
   1.150   20.73    2.82   -2.20   0.000   0.200   0.000    0.00
   1.200   19.98    2.86   -3.27   0.000   0.200   0.000    0.00
   1.250   19.25    2.18   -3.57   0.000   0.200   0.000    0.00
   1.300   19.49    2.57   -2.99   0.000   0.200   0.000    0.00
   1.350   18.82    0.16   -2.77   0.000   0.200   0.000    0.00
   1.400   20.21   -0.48   -3.51   0.000   0.200   0.000    0.00
   1.450   20.90    0.52   -4.43   0.000   0.200   0.000    0.00
   1.500   20.98    0.77   -3.25   0.000   0.200   0.000    0.00
   1.550   20.87    0.95   -4.24   0.000   0.200   0.000    0.00
   1.600   20.75   -0.55   -4.43   0.000   0.200   0.000    0.00
   1.650   20.90   -1.86   -3.48   0.000   0.200   0.000    0.00
   1.700   21.03    0.99   -2.57   0.000   0.200   0.000    0.00
   1.750   20.89   -0.38   -2.13   0.000   0.200   0.000    0.00
   1.800   19.93    0.07   -1.38   0.000   0.200   0.000    0.00
   1.850   19.75   -0.77   -2.46   0.000   0.200   0.000    0.00
   1.900   20.94   -1.59   -1.84   0.000   0.200   0.000    0.00
   1.950   20.24    0.83   -1.81   0.000   0.200   0.000    0.00
   2.000   19.68    1.08   -1.48   0.000   0.200   0.000    0.00
   2.050   19.32    0.63   -1.87   0.000   0.200   0.000    0.00
   2.100   19.02   -0.40   -2.99   0.000   0.200   0.000    0.00
   2.150   19.08   -1.74   -2.95   0.000   0.200   0.000    0.00
   2.200   18.87   -4.84   -2.05   0.000   0.200   0.000    0.00
   2.250   18.88   -2.78   -1.73   0.000   0.200   0.000    0.00
   2.300   18.91   -3.08   -0.74   0.000   0.200   0.000    0.00
   2.350   19.33   -0.18   -0.55   0.000   0.200   0.000    0.00
   2.400   19.29    4.43   -0.87   0.000   0.200   0.000    0.00
   2.450   19.33    5.27   -1.13   0.000   0.200   0.000    0.00
   2.500   19.87    1.40   -0.73   0.000   0.200   0.000    0.00
   2.550   20.05    3.81   -1.25   0.000   0.200   0.000    0.00
   2.600   21.07    3.43   -1.39   0.000   0.200   0.000    0.00
   2.650   20.45    4.07   -0.67   0.000   0.200   0.000    0.00
   2.700   21.42    3.08   -0.22   0.000   0.200   0.000    0.00
   2.750   21.50   -0.02   -0.30   0.000   0.200   0.000    0.00
   2.800   22.37    1.30   -1.10   0.000   0.200   0.000    0.00
   2.850   22.39    2.51   -1.28   0.000   0.200   0.000    0.00
   2.900   22.19   -0.30   -1.10   0.000   0.200   0.000    0.00
   2.950   21.71    3.34   -1.30   0.000   0.200   0.000    0.00
   3.000   20.40    7.18   -2.30   0.000   0.200   0.000    0.00
   3.050   20.42    2.34   -2.49   0.000   0.200   0.000    0.00
   3.100   20.83    1.81   -1.71   0.000   0.200   0.000    0.00
   3.150   20.93    4.85   -2.43   0.000   0.200   0.000    0.00
   3.200   21.34    8.33   -4.00   0.000   0.200   0.000    0.00
   3.250   20.44   11.76   -4.62   0.000   0.200   0.000    0.00
   3.300   19.91   14.71   -4.78   0.000   0.200   0.000    0.00
   3.350   20.03   10.68   -3.95   0.000   0.200   0.000    0.00
   3.400   19.86   11.58   -3.56   0.000   0.200   0.000    0.00
   3.450   20.06   11.27   -3.07   0.000   0.200   0.000    0.00
   3.500   19.93   12.39   -2.68   0.000   0.200   0.000    0.00
   3.550   19.32   13.97   -3.17   0.000   0.200   0.000    0.00
   3.600   19.60   15.92   -3.27   0.000   0.200   0.000    0.00
   3.650   19.78   17.56   -2.35   0.000   0.200   0.000    0.00
   3.700   19.65   15.61   -2.10   0.000   0.200   0.000    0.00
   3.750   19.05   15.33   -1.44   0.000   0.200   0.000    0.00
   3.800   18.48   16.32   -0.08   0.000   0.200   0.000    0.00
   3.850   18.28   14.87    0.95   0.000   0.200   0.000    0.00
   3.900   18.25   13.45    0.64   0.000   0.200   0.000    0.00
   3.950   18.10   12.41    0.21   0.000   0.200   0.000    0.00
   4.000   17.77   13.38   -0.06   0.000   0.200   0.000    0.00
   4.050   17.25    9.96   -0.61   0.000   0.200   0.000    0.00
   4.100   16.65   12.08   -0.59   0.000   0.200   0.000    0.00
   4.150   17.26   11.90   -0.57   0.000   0.200   0.000    0.00
   4.200   16.78   10.30   -0.38   0.000   0.200   0.000    0.00
   4.250   16.63   10.79   -0.47   0.000   0.200   0.000    0.00
   4.300   16.39   13.18   -1.10   0.000   0.200   0.000    0.00
   4.350   16.33   13.80   -0.99   0.000   0.200   0.000    0.00
   4.400   16.74   15.81   -1.58   0.000   0.200   0.000    0.00
   4.450   17.23   17.14   -1.78   0.000   0.200   0.000    0.00
   4.500   17.36   16.24   -1.93   0.000   0.200   0.000    0.00
   4.550   17.24   14.45   -1.42   0.000   0.200   0.000    0.00
   4.600   17.04   11.41   -1.56   0.000   0.200   0.000    0.00
   4.650   17.62    8.65   -2.55   0.000   0.200   0.000    0.00
   4.700   17.58   12.20   -2.90   0.000   0.200   0.000    0.00
   4.750   18.05   10.59   -3.42   0.000   0.200   0.000    0.00
   4.800   18.69    6.72   -3.51   0.000   0.200   0.000    0.00
   4.850   18.23    5.84   -3.70   0.000   0.200   0.000    0.00
   4.900   17.60    4.04   -4.20   0.000   0.200   0.000    0.00
   4.950   18.28    1.46   -5.17   0.000   0.200   0.000    0.00
   5.000   18.52    3.70   -5.49   0.000   0.200   0.000    0.00
   5.050   18.53    1.71   -5.49   0.000   0.200   0.000    0.00
   5.100   17.36    2.75   -4.15   0.000   0.200   0.000    0.00
   5.150   18.10    0.28   -4.03   0.000   0.200   0.000    0.00
   5.200   19.02    0.54   -3.97   0.000   0.200   0.000    0.00
   5.250   18.11    0.76   -4.00   0.000   0.200   0.000    0.00
   5.300   18.31    2.80   -4.64   0.000   0.200   0.000    0.00
   5.350   18.08    4.59   -5.37   0.000   0.200   0.000    0.00
   5.400   18.60    3.38   -3.87   0.000   0.200   0.000    0.00
   5.450   17.84    1.86   -4.32   0.000   0.200   0.000    0.00
   5.500   17.89    0.38   -3.92   0.000   0.200   0.000    0.00
   5.550   18.34   -3.00   -4.45   0.000   0.200   0.000    0.00
   5.600   18.53   -1.61   -5.75   0.000   0.200   0.000    0.00
   5.650   18.78   -1.55   -5.30   0.000   0.200   0.000    0.00
   5.700   19.40    1.99   -4.27   0.000   0.200   0.000    0.00
   5.750   18.99    2.74   -4.37   0.000   0.200   0.000    0.00
   5.800   18.58   -2.06   -3.79   0.000   0.200   0.000    0.00
   5.850   18.39   -3.31   -3.79   0.000   0.200   0.000    0.00
   5.900   18.15   -0.06   -3.12   0.000   0.200   0.000    0.00
   5.950   17.96   -0.62   -3.61   0.000   0.200   0.000    0.00
   6.000   17.68    0.42   -3.59   0.000   0.200   0.000    0.00
   6.050   17.09    0.37   -3.79   0.000   0.200   0.000    0.00
   6.100   17.19    1.40   -3.27   0.000   0.200   0.000    0.00
   6.150   17.17    3.17   -3.22   0.000   0.200   0.000    0.00
   6.200   17.77    3.69   -3.56   0.000   0.200   0.000    0.00
   6.250   17.97    0.32   -3.22   0.000   0.200   0.000    0.00
   6.300   17.83    2.51   -3.02   0.000   0.200   0.000    0.00
   6.350   18.14    0.33   -2.34   0.000   0.200   0.000    0.00
   6.400   17.98    0.89   -3.23   0.000   0.200   0.000    0.00
   6.450   17.52    0.26   -2.21   0.000   0.200   0.000    0.00
   6.500   18.06    2.12   -2.72   0.000   0.200   0.000    0.00
   6.550   18.16    2.40   -3.62   0.000   0.200   0.000    0.00
   6.600   18.61    4.92   -1.90   0.000   0.200   0.000    0.00
   6.650   18.23    7.70   -1.54   0.000   0.200   0.000    0.00
   6.700   18.68    8.62   -1.66   0.000   0.200   0.000    0.00
   6.750   17.47   10.79   -1.95   0.000   0.200   0.000    0.00
   6.800   16.76    9.72   -2.45   0.000   0.200   0.000    0.00
   6.850   16.75   10.88   -3.20   0.000   0.200   0.000    0.00
   6.900   16.75   14.67   -2.70   0.000   0.200   0.000    0.00
   6.950   17.67   14.15   -2.07   0.000   0.200   0.000    0.00
   7.000   17.74   10.07   -2.02   0.000   0.200   0.000    0.00
   7.050   16.65    9.45   -1.32   0.000   0.200   0.000    0.00
   7.100   15.76    9.63   -1.70   0.000   0.200   0.000    0.00
   7.150   16.40    8.10   -1.24   0.000   0.200   0.000    0.00
   7.200   17.05    8.02   -2.68   0.000   0.200   0.000    0.00
   7.250   16.95    4.95   -2.82   0.000   0.200   0.000    0.00
   7.300   17.01    5.57   -3.05   0.000   0.200   0.000    0.00
   7.350   16.74    5.44   -3.00   0.000   0.200   0.000    0.00
   7.400   16.09    5.46   -3.30   0.000   0.200   0.000    0.00
   7.450   16.13    5.37   -2.72   0.000   0.200   0.000    0.00
   7.500   16.05   -0.23   -3.29   0.000   0.200   0.000    0.00
   7.550   16.07   -2.46   -2.56   0.000   0.200   0.000    0.00
   7.600   16.35    0.59   -2.85   0.000   0.200   0.000    0.00
   7.650   16.30    2.81   -2.21   0.000   0.200   0.000    0.00
   7.700   16.84    2.35   -2.37   0.000   0.200   0.000    0.00
   7.750   16.39    4.37   -1.85   0.000   0.200   0.000    0.00
   7.800   16.05    6.16   -1.72   0.000   0.200   0.000    0.00
   7.850   15.59    5.18   -1.51   0.000   0.200   0.000    0.00
   7.900   15.11    6.63   -1.27   0.000   0.200   0.000    0.00
   7.950   15.57    5.64   -1.34   0.000   0.200   0.000    0.00
   8.000   16.40    4.39   -0.94   0.000   0.200   0.000    0.00
   8.050   16.59    6.34   -0.89   0.000   0.200   0.000    0.00
   8.100   17.19    9.46   -1.99   0.000   0.200   0.000    0.00
   8.150   16.11    7.82   -1.67   0.000   0.200   0.000    0.00
   8.200   16.82    6.72   -1.46   0.000   0.200   0.000    0.00
   8.250   16.35    4.31   -1.61   0.000   0.200   0.000    0.00
   8.300   16.56    1.29   -1.60   0.000   0.200   0.000    0.00
   8.350   18.32    4.56   -1.21   0.000   0.200   0.000    0.00
   8.400   18.82    3.03   -0.50   0.000   0.200   0.000    0.00
   8.450   19.23    5.26   -0.09   0.000   0.200   0.000    0.00
   8.500   17.93    5.42    0.32   0.000   0.200   0.000    0.00
   8.550   18.24    5.86    0.42   0.000   0.200   0.000    0.00
   8.600   18.55    4.74    0.68   0.000   0.200   0.000    0.00
   8.650   19.27    4.96    0.82   0.000   0.200   0.000    0.00
   8.700   19.94    4.97    0.71   0.000   0.200   0.000    0.00
   8.750   20.50    5.99    0.93   0.000   0.200   0.000    0.00
   8.800   20.09    3.00    0.48   0.000   0.200   0.000    0.00
   8.850   19.90    5.19    0.70   0.000   0.200   0.000    0.00
   8.900   19.69    4.82    0.76   0.000   0.200   0.000    0.00
   8.950   19.55    5.86    0.84   0.000   0.200   0.000    0.00
   9.000   18.55    8.66    1.64   0.000   0.200   0.000    0.00
   9.050   18.30   10.77    1.01   0.000   0.200   0.000    0.00
   9.100   17.43    9.46    1.62   0.000   0.200   0.000    0.00
   9.150   17.56   10.36    2.38   0.000   0.200   0.000    0.00
   9.200   17.83   10.52    3.34   0.000   0.200   0.000    0.00
   9.250   17.61    9.89    2.86   0.000   0.200   0.000    0.00
   9.300   18.09    6.04    3.14   0.000   0.200   0.000    0.00
   9.350   18.48    1.49    3.27   0.000   0.200   0.000    0.00
   9.400   18.51    0.86    3.88   0.000   0.200   0.000    0.00
   9.450   17.72   -0.22    3.47   0.000   0.200   0.000    0.00
   9.500   18.02    1.89    3.99   0.000   0.200   0.000    0.00
   9.550   17.92    0.88    4.25   0.000   0.200   0.000    0.00
   9.600   18.46   -0.17    4.74   0.000   0.200   0.000    0.00
   9.650   17.55   -2.75    3.76   0.000   0.200   0.000    0.00
   9.700   18.00   -5.94    3.19   0.000   0.200   0.000    0.00
   9.750   18.92   -5.26    2.76   0.000   0.200   0.000    0.00
   9.800   18.33   -7.83    2.01   0.000   0.200   0.000    0.00
   9.850   18.86   -8.06    2.37   0.000   0.200   0.000    0.00
   9.900   18.69   -8.41    1.98   0.000   0.200   0.000    0.00
   9.950   18.78   -7.43    1.73   0.000   0.200   0.000    0.00
  10.000   19.77   -6.29    2.74   0.000   0.200   0.000    0.00
  10.050   19.18   -7.96    2.61   0.000   0.200   0.000    0.00
  10.100   18.97   -7.40    2.12   0.000   0.200   0.000    0.00
  10.150   17.82   -7.30    2.41   0.000   0.200   0.000    0.00
  10.200   17.38   -6.15    2.02   0.000   0.200   0.000    0.00
  10.250   17.66   -5.25    2.29   0.000   0.200   0.000    0.00
  10.300   17.93   -4.02    1.90   0.000   0.200   0.000    0.00
  10.350   18.45   -8.97    1.49   0.000   0.200   0.000    0.00
  10.400   19.04   -9.05    2.00   0.000   0.200   0.000    0.00
  10.450   18.15  -11.72    2.36   0.000   0.200   0.000    0.00
  10.500   18.22   -9.70    2.64   0.000   0.200   0.000    0.00
  10.550   17.77   -5.68    3.29   0.000   0.200   0.000    0.00
  10.600   17.30   -8.36    3.56   0.000   0.200   0.000    0.00
  10.650   16.71   -7.74    3.95   0.000   0.200   0.000    0.00
  10.700   16.36   -9.41    4.44   0.000   0.200   0.000    0.00
  10.750   17.13  -10.82    3.82   0.000   0.200   0.000    0.00
  10.800   17.83   -7.58    4.24   0.000   0.200   0.000    0.00
  10.850   18.65   -4.90    3.84   0.000   0.200   0.000    0.00
  10.900   19.14   -5.25    4.40   0.000   0.200   0.000    0.00
  10.950   18.78   -8.33    4.55   0.000   0.200   0.000    0.00
  11.000   17.95  -10.11    4.26   0.000   0.200   0.000    0.00
  11.050   17.92   -7.64    3.69   0.000   0.200   0.000    0.00
  11.100   17.50   -5.91    5.26   0.000   0.200   0.000    0.00
  11.150   17.31   -7.87    4.01   0.000   0.200   0.000    0.00
  11.200   17.14  -10.84    3.77   0.000   0.200   0.000    0.00
  11.250   17.86  -11.47    3.26   0.000   0.200   0.000    0.00
  11.300   17.71  -13.21    3.88   0.000   0.200   0.000    0.00
  11.350   17.77  -14.87    3.22   0.000   0.200   0.000    0.00
  11.400   18.09  -14.33    4.68   0.000   0.200   0.000    0.00
  11.450   18.53  -14.18    4.88   0.000   0.200   0.000    0.00
  11.500   17.87  -14.55    4.85   0.000   0.200   0.000    0.00
  11.550   17.33  -14.28    4.52   0.000   0.200   0.000    0.00
  11.600   16.72   -8.45    4.27   0.000   0.200   0.000    0.00
  11.650   17.05   -9.54    4.36   0.000   0.200   0.000    0.00
  11.700   18.52   -9.67    3.67   0.000   0.200   0.000    0.00
  11.750   18.69   -9.82    3.53   0.000   0.200   0.000    0.00
  11.800   19.08  -10.75    3.78   0.000   0.200   0.000    0.00
  11.850   19.76  -10.19    3.85   0.000   0.200   0.000    0.00
  11.900   20.08  -10.00    4.72   0.000   0.200   0.000    0.00
  11.950   20.46  -10.19    4.37   0.000   0.200   0.000    0.00
  12.000   20.84   -8.39    3.87   0.000   0.200   0.000    0.00
  12.050   20.18   -8.37    4.27   0.000   0.200   0.000    0.00
  12.100   20.18   -9.43    3.55   0.000   0.200   0.000    0.00
  12.150   20.08  -11.26    3.13   0.000   0.200   0.000    0.00
  12.200   20.53   -9.16    3.53   0.000   0.200   0.000    0.00
  12.250   21.09   -8.22    3.77   0.000   0.200   0.000    0.00
  12.300   20.76   -4.86    3.89   0.000   0.200   0.000    0.00
  12.350   20.35   -8.17    4.34   0.000   0.200   0.000    0.00
  12.400   20.87   -7.91    3.92   0.000   0.200   0.000    0.00
  12.450   19.19   -7.50    4.05   0.000   0.200   0.000    0.00
  12.500   19.64   -5.88    4.24   0.000   0.200   0.000    0.00
  12.550   19.96   -4.35    3.54   0.000   0.200   0.000    0.00
  12.600   19.42   -4.16    3.23   0.000   0.200   0.000    0.00
  12.650   20.15   -5.49    3.32   0.000   0.200   0.000    0.00
  12.700   20.70   -4.94    2.80   0.000   0.200   0.000    0.00
  12.750   20.53   -3.67    3.37   0.000   0.200   0.000    0.00
  12.800   20.53   -4.78    3.39   0.000   0.200   0.000    0.00
  12.850   20.83   -5.86    3.08   0.000   0.200   0.000    0.00
  12.900   21.21   -7.27    3.50   0.000   0.200   0.000    0.00
  12.950   20.48   -8.16    2.66   0.000   0.200   0.000    0.00
  13.000   20.30   -9.87    1.96   0.000   0.200   0.000    0.00
  13.050   20.59  -12.75    2.53   0.000   0.200   0.000    0.00
  13.100   21.44  -12.55    2.59   0.000   0.200   0.000    0.00
  13.150   20.90  -14.52    2.84   0.000   0.200   0.000    0.00
  13.200   20.77  -14.30    4.14   0.000   0.200   0.000    0.00
  13.250   21.59  -13.63    3.34   0.000   0.200   0.000    0.00
  13.300   20.89  -15.31    3.59   0.000   0.200   0.000    0.00
  13.350   20.69  -12.32    2.78   0.000   0.200   0.000    0.00
  13.400   20.26  -11.70    2.73   0.000   0.200   0.000    0.00
  13.450   19.44  -14.03    2.85   0.000   0.200   0.000    0.00
  13.500   20.10  -15.52    2.95   0.000   0.200   0.000    0.00
  13.550   19.56  -14.50    2.77   0.000   0.200   0.000    0.00
  13.600   19.95  -14.97    1.65   0.000   0.200   0.000    0.00
  13.650   19.87  -14.51    1.50   0.000   0.200   0.000    0.00
  13.700   20.18  -16.94    1.62   0.000   0.200   0.000    0.00
  13.750   20.50  -13.49    2.24   0.000   0.200   0.000    0.00
  13.800   21.45  -14.93    2.13   0.000   0.200   0.000    0.00
  13.850   21.83  -14.97    2.21   0.000   0.200   0.000    0.00
  13.900   21.31  -14.94    2.09   0.000   0.200   0.000    0.00
  13.950   20.24  -17.14    2.02   0.000   0.200   0.000    0.00
  14.000   20.35  -18.14    2.85   0.000   0.200   0.000    0.00
  14.050   20.32  -21.63    4.87   0.000   0.200   0.000    0.00
  14.100   19.87  -18.42    4.87   0.000   0.200   0.000    0.00
  14.150   19.98  -16.99    4.35   0.000   0.200   0.000    0.00
  14.200   20.03  -15.44    3.80   0.000   0.200   0.000    0.00
  14.250   19.24  -10.35    4.08   0.000   0.200   0.000    0.00
  14.300   18.80   -9.94    4.80   0.000   0.200   0.000    0.00
  14.350   19.21  -13.24    4.96   0.000   0.200   0.000    0.00
  14.400   19.71  -14.58    3.91   0.000   0.200   0.000    0.00
  14.450   19.28  -14.41    4.24   0.000   0.200   0.000    0.00
  14.500   19.03  -12.72    4.43   0.000   0.200   0.000    0.00
  14.550   19.44  -13.11    4.61   0.000   0.200   0.000    0.00
  14.600   19.94  -12.15    5.10   0.000   0.200   0.000    0.00
  14.650   20.02  -10.67    4.83   0.000   0.200   0.000    0.00
  14.700   20.08  -10.15    5.42   0.000   0.200   0.000    0.00
  14.750   19.27   -8.44    5.04   0.000   0.200   0.000    0.00
  14.800   19.22   -7.43    5.55   0.000   0.200   0.000    0.00
  14.850   19.56  -10.81    5.61   0.000   0.200   0.000    0.00
  14.900   19.54   -8.23    4.88   0.000   0.200   0.000    0.00
  14.950   19.97   -4.50    4.91   0.000   0.200   0.000    0.00
  15.000   19.20   -6.64    5.11   0.000   0.200   0.000    0.00
  15.050   20.50   -5.75    5.26   0.000   0.200   0.000    0.00
  15.100   21.22   -4.80    5.72   0.000   0.200   0.000    0.00
  15.150   21.81   -5.58    5.19   0.000   0.200   0.000    0.00
  15.200   20.90   -7.22    5.89   0.000   0.200   0.000    0.00
  15.250   20.56   -6.42    5.78   0.000   0.200   0.000    0.00
  15.300   20.34   -7.56    5.98   0.000   0.200   0.000    0.00
  15.350   19.84   -6.29    6.05   0.000   0.200   0.000    0.00
  15.400   19.41   -6.82    5.88   0.000   0.200   0.000    0.00
  15.450   19.20   -5.75    4.83   0.000   0.200   0.000    0.00
  15.500   20.08   -5.59    4.76   0.000   0.200   0.000    0.00
  15.550   19.73   -5.48    4.62   0.000   0.200   0.000    0.00
  15.600   19.88   -2.42    3.65   0.000   0.200   0.000    0.00
  15.650   20.18   -7.66    3.15   0.000   0.200   0.000    0.00
  15.700   19.72   -6.81    3.54   0.000   0.200   0.000    0.00
  15.750   20.17   -4.42    4.25   0.000   0.200   0.000    0.00
  15.800   20.78   -5.76    4.46   0.000   0.200   0.000    0.00
  15.850   21.01   -5.53    5.37   0.000   0.200   0.000    0.00
  15.900   20.89   -5.28    5.09   0.000   0.200   0.000    0.00
  15.950   20.58   -6.07    4.71   0.000   0.200   0.000    0.00
  16.000   21.41   -5.73    5.25   0.000   0.200   0.000    0.00
  16.050   21.59   -6.13    5.05   0.000   0.200   0.000    0.00
  16.100   21.20   -5.16    4.05   0.000   0.200   0.000    0.00
  16.150   20.69   -6.61    4.47   0.000   0.200   0.000    0.00
  16.200   20.91   -5.09    3.59   0.000   0.200   0.000    0.00
  16.250   21.69   -3.40    2.69   0.000   0.200   0.000    0.00
  16.300   21.08   -8.13    2.80   0.000   0.200   0.000    0.00
  16.350   21.75   -4.75    1.84   0.000   0.200   0.000    0.00
  16.400   22.25   -4.89    3.05   0.000   0.200   0.000    0.00
  16.450   22.40   -4.46    3.69   0.000   0.200   0.000    0.00
  16.500   21.89   -4.63    3.02   0.000   0.200   0.000    0.00
  16.550   21.61   -3.16    2.78   0.000   0.200   0.000    0.00
  16.600   22.13   -2.54    2.74   0.000   0.200   0.000    0.00
  16.650   21.83   -2.97    3.07   0.000   0.200   0.000    0.00
  16.700   21.87   -1.66    1.75   0.000   0.200   0.000    0.00
  16.750   22.32    0.83    1.88   0.000   0.200   0.000    0.00
  16.800   22.55   -0.03    2.08   0.000   0.200   0.000    0.00
  16.850   22.58   -0.62    1.96   0.000   0.200   0.000    0.00
  16.900   21.88   -2.15    3.53   0.000   0.200   0.000    0.00
  16.950   22.04   -4.16    4.95   0.000   0.200   0.000    0.00
  17.000   22.61   -2.76    5.75   0.000   0.200   0.000    0.00
  17.050   22.27   -2.16    5.95   0.000   0.200   0.000    0.00
  17.100   21.75    0.32    6.42   0.000   0.200   0.000    0.00
  17.150   22.04   -0.33    5.49   0.000   0.200   0.000    0.00
  17.200   22.19    1.86    5.07   0.000   0.200   0.000    0.00
  17.250   21.69    1.88    4.13   0.000   0.200   0.000    0.00
  17.300   22.16    2.35    4.38   0.000   0.200   0.000    0.00
  17.350   22.34    0.08    4.12   0.000   0.200   0.000    0.00
  17.400   23.17   -2.99    3.81   0.000   0.200   0.000    0.00
  17.450   22.85   -4.48    3.60   0.000   0.200   0.000    0.00
  17.500   23.05   -4.76    3.46   0.000   0.200   0.000    0.00
  17.550   23.49   -4.53    3.93   0.000   0.200   0.000    0.00
  17.600   24.03   -0.71    3.77   0.000   0.200   0.000    0.00
  17.650   23.32    1.01    5.06   0.000   0.200   0.000    0.00
  17.700   23.83    0.94    5.32   0.000   0.200   0.000    0.00
  17.750   24.64    2.44    5.34   0.000   0.200   0.000    0.00
  17.800   23.47    1.59    5.96   0.000   0.200   0.000    0.00
  17.850   23.74    2.74    6.88   0.000   0.200   0.000    0.00
  17.900   23.62    1.85    5.56   0.000   0.200   0.000    0.00
  17.950   24.45    2.68    4.92   0.000   0.200   0.000    0.00
  18.000   24.54    1.62    5.20   0.000   0.200   0.000    0.00
  18.050   24.66    2.44    4.47   0.000   0.200   0.000    0.00
  18.100   23.80    3.29    4.31   0.000   0.200   0.000    0.00
  18.150   23.63    2.69    3.66   0.000   0.200   0.000    0.00
  18.200   23.19    5.75    3.45   0.000   0.200   0.000    0.00
  18.250   23.21    4.36    2.90   0.000   0.200   0.000    0.00
  18.300   23.51    3.38    2.35   0.000   0.200   0.000    0.00
  18.350   23.45    1.20    1.89   0.000   0.200   0.000    0.00
  18.400   23.32    0.93    1.65   0.000   0.200   0.000    0.00
  18.450   24.22    1.06    2.30   0.000   0.200   0.000    0.00
  18.500   23.92   -0.13    2.47   0.000   0.200   0.000    0.00
  18.550   23.73   -2.47    2.73   0.000   0.200   0.000    0.00
  18.600   23.25   -1.16    2.26   0.000   0.200   0.000    0.00
  18.650   22.88   -0.29    2.37   0.000   0.200   0.000    0.00
  18.700   22.17    0.77    2.41   0.000   0.200   0.000    0.00
  18.750   22.53    1.24    3.19   0.000   0.200   0.000    0.00
  18.800   23.41    0.29    3.15   0.000   0.200   0.000    0.00
  18.850   23.63    0.42    2.79   0.000   0.200   0.000    0.00
  18.900   24.41    0.97    1.43   0.000   0.200   0.000    0.00
  18.950   24.18    0.05    1.50   0.000   0.200   0.000    0.00
  19.000   23.92   -1.42    1.47   0.000   0.200   0.000    0.00
  19.050   24.03   -0.62    3.05   0.000   0.200   0.000    0.00
  19.100   24.27    0.47    3.93   0.000   0.200   0.000    0.00
  19.150   23.64    1.73    3.42   0.000   0.200   0.000    0.00
  19.200   22.38    0.72    3.25   0.000   0.200   0.000    0.00
  19.250   22.80   -2.74    2.26   0.000   0.200   0.000    0.00
  19.300   22.30   -6.31    2.98   0.000   0.200   0.000    0.00
  19.350   21.49   -6.53    3.28   0.000   0.200   0.000    0.00
  19.400   22.32   -5.08    2.22   0.000   0.200   0.000    0.00
  19.450   22.47   -2.86    3.23   0.000   0.200   0.000    0.00
  19.500   22.57   -3.26    3.46   0.000   0.200   0.000    0.00
  19.550   22.57   -2.14    2.36   0.000   0.200   0.000    0.00
  19.600   22.30   -1.34    2.13   0.000   0.200   0.000    0.00
  19.650   22.13   -4.25    2.04   0.000   0.200   0.000    0.00
  19.700   21.99   -7.34    1.50   0.000   0.200   0.000    0.00
  19.750   22.57   -5.51    0.75   0.000   0.200   0.000    0.00
  19.800   23.16   -4.95    1.18   0.000   0.200   0.000    0.00
  19.850   23.10   -3.27    2.31   0.000   0.200   0.000    0.00
  19.900   23.15   -2.00    2.92   0.000   0.200   0.000    0.00
  19.950   23.58   -1.37    3.60   0.000   0.200   0.000    0.00
  20.000   24.12   -1.18    2.98   0.000   0.200   0.000    0.00
  20.050   23.37   -2.30    2.17   0.000   0.200   0.000    0.00
  20.100   23.77   -2.41    2.52   0.000   0.200   0.000    0.00
  20.150   22.94   -2.41    2.88   0.000   0.200   0.000    0.00
  20.200   22.42   -3.30    2.10   0.000   0.200   0.000    0.00
  20.250   21.69   -1.80    1.84   0.000   0.200   0.000    0.00
  20.300   22.02   -1.65    1.99   0.000   0.200   0.000    0.00
  20.350   22.28   -0.58    1.40   0.000   0.200   0.000    0.00
  20.400   21.16    0.41    2.91   0.000   0.200   0.000    0.00
  20.450   21.55    0.77    2.08   0.000   0.200   0.000    0.00
  20.500   21.70    2.12    2.51   0.000   0.200   0.000    0.00
  20.550   21.63   -0.39    2.67   0.000   0.200   0.000    0.00
  20.600   21.91   -1.37    1.82   0.000   0.200   0.000    0.00
  20.650   21.65   -1.38    2.10   0.000   0.200   0.000    0.00
  20.700   21.54    0.21    2.01   0.000   0.200   0.000    0.00
  20.750   20.82   -1.02    1.80   0.000   0.200   0.000    0.00
  20.800   20.74   -1.58    1.47   0.000   0.200   0.000    0.00
  20.850   21.37   -2.06    0.53   0.000   0.200   0.000    0.00
  20.900   21.51   -0.37   -0.92   0.000   0.200   0.000    0.00
  20.950   21.68   -0.30    0.37   0.000   0.200   0.000    0.00
  21.000   21.99    0.08    0.10   0.000   0.200   0.000    0.00
  21.050   22.59   -1.52    1.11   0.000   0.200   0.000    0.00
  21.100   22.41   -4.22    0.09   0.000   0.200   0.000    0.00
  21.150   22.37   -3.18   -0.31   0.000   0.200   0.000    0.00
  21.200   22.14   -4.88    0.03   0.000   0.200   0.000    0.00
  21.250   22.75   -4.97    0.77   0.000   0.200   0.000    0.00
  21.300   23.30   -6.01    1.05   0.000   0.200   0.000    0.00
  21.350   23.54   -6.99    0.99   0.000   0.200   0.000    0.00
  21.400   22.92   -7.93    0.63   0.000   0.200   0.000    0.00
  21.450   23.02  -10.60    0.74   0.000   0.200   0.000    0.00
  21.500   22.49  -10.78    0.73   0.000   0.200   0.000    0.00
  21.550   22.79   -8.94    0.42   0.000   0.200   0.000    0.00
  21.600   22.39  -11.72   -0.35   0.000   0.200   0.000    0.00
  21.650   21.58  -11.76   -0.68   0.000   0.200   0.000    0.00
  21.700   22.28  -10.94   -1.52   0.000   0.200   0.000    0.00
  21.750   22.12   -9.27   -1.06   0.000   0.200   0.000    0.00
  21.800   21.87   -6.55   -0.49   0.000   0.200   0.000    0.00
  21.850   22.21   -8.50   -1.22   0.000   0.200   0.000    0.00
  21.900   22.61  -10.71   -1.34   0.000   0.200   0.000    0.00
  21.950   23.12  -11.57   -1.12   0.000   0.200   0.000    0.00
  22.000   23.27   -8.72   -1.90   0.000   0.200   0.000    0.00
  22.050   22.16  -10.20   -2.76   0.000   0.200   0.000    0.00
  22.100   22.46  -12.06   -3.25   0.000   0.200   0.000    0.00
  22.150   22.88  -11.68   -3.77   0.000   0.200   0.000    0.00
  22.200   22.01  -11.73   -4.31   0.000   0.200   0.000    0.00
  22.250   21.15  -12.42   -5.73   0.000   0.200   0.000    0.00
  22.300   21.11  -11.21   -5.64   0.000   0.200   0.000    0.00
  22.350   21.55   -9.78   -5.24   0.000   0.200   0.000    0.00
  22.400   20.93  -10.67   -5.38   0.000   0.200   0.000    0.00
  22.450   20.74  -11.39   -4.65   0.000   0.200   0.000    0.00
  22.500   20.98   -8.74   -4.28   0.000   0.200   0.000    0.00
  22.550   21.27   -8.99   -4.05   0.000   0.200   0.000    0.00
  22.600   20.58   -8.02   -4.47   0.000   0.200   0.000    0.00
  22.650   20.46   -8.88   -4.57   0.000   0.200   0.000    0.00
  22.700   20.48   -5.30   -4.38   0.000   0.200   0.000    0.00